22
	Energy: -202475.1518349
C         -3.26783        0.74331       -0.06727
H         -3.57767        1.67323        0.41889
H         -3.28662        0.90585       -1.15097
H         -4.01550       -0.03787        0.16804
C         -1.35736       -0.81724       -0.25827
H         -1.91437       -1.72904        0.02869
H         -1.46282       -0.70182       -1.35381
C          0.98364       -0.02185       -0.35575
H          0.51987        0.96923       -0.23477
H          1.19267       -0.16604       -1.43302
N         -1.88881        0.41824        0.34210
H         -1.77509        0.37691        1.35966
N          0.02477       -0.99031        0.19626
H          0.36943       -1.94842        0.10017
N          2.25794       -0.20414        0.35859
H          2.09563       -0.11062        1.36662
C          3.33917        0.68080       -0.11712
H          3.11370        1.76211       -0.05488
H          4.24564        0.48402        0.46355
H          3.55219        0.44576       -1.16633
Li         0.00906321    -0.01848543     0.01428638
Na	   -0.042571       0.0866055      -0.069481
