23
	Energy: -451850.9267657
C         -5.47437        0.25765        0.00094
H         -5.53690        0.88906        0.89045
H         -5.53756        0.89022       -0.88768
H         -6.25695       -0.49871        0.00074
C         -1.89716       -0.71405       -0.00092
H         -1.94358       -1.35684       -0.88442
H         -1.94260       -1.35749        0.88216
O         -4.21091       -0.51045       -0.00004
O         -0.68140        0.10095       -0.00126
C         -3.06306        0.25453        0.00007
O         -3.04942        1.47312        0.00090
C          1.62270        0.40861       -0.00080
H          1.54219        1.05114        0.88070
H          1.54276        1.05014       -0.88308
C          0.50570       -0.61243       -0.00058
O          0.56317       -1.82936        0.00014
C          5.23128       -0.48351        0.00162
H          5.20259       -1.12984       -0.88079
H          6.14009        0.11734        0.00213
H          5.20082       -1.12863        0.88486
O          2.87270       -0.35002        0.00003
C          4.02591        0.42497       -0.00022
O          3.99126        1.64813       -0.00050
