17
	Energy: -239648.1412573
C          3.55925        0.12139        0.00028
H          4.30405       -0.67526       -0.00017
H          3.69954        0.74855        0.89364
H          3.69944        0.74949       -0.89243
C          1.19005        0.39435       -0.00021
H          1.23027        1.04764        0.89457
H          1.23053        1.04756       -0.89504
C         -1.19005        0.39435       -0.00011
H         -1.23058        1.04760       -0.89491
H         -1.23022        1.04760        0.89471
C         -3.55925        0.12139        0.00020
H         -3.69958        0.74897       -0.89285
H         -4.30405       -0.67526        0.00032
H         -3.69940        0.74907        0.89321
O          2.26586       -0.54809       -0.00001
O         -0.00000       -0.40693       -0.00034
O         -2.26586       -0.54809        0.00010
